Circuit: * Z:\home\fabian\git\handcart-motor-controller-board\balancer.asc

Per .tran options, skipping operating point for transient analysis.
Ignoring empty pin current: Ix(u1:1)
Ignoring empty pin current: Ix(u1:2)

Date: Sun May 26 13:37:39 2019
Total elapsed time: 31.083 seconds.

tnom = 27
temp = 27
method = modified trap
totiter = 5094867
traniter = 5094867
tranpoints = 1216296
accept = 881543
rejected = 334753
matrix size = 42
fillins = 16
solver = Normal
Thread vector: 4.9/3.9[2] 2.1/2.0[1] 0.9/1.2[1] 0.4/1.1[1]  2592/500
Matrix Compiler1: 2.95 KB object code size  0.8/0.7/[0.5]
Matrix Compiler2: 3.44 KB object code size  0.6/0.7/[0.5]

