Circuit: * Z:\home\fabian\git\handcart-motor-controller-board\Draft1.asc

WARNING: Specified period is not longer than the sum of Trise, Tfall, and Ton for v3.  Increasing period to 0.004
WARNING: Specified period is not longer than the sum of Trise, Tfall, and Ton for v1.  Increasing period to 0.004
Direct Newton iteration for .op point succeeded.

Date: Mon May 27 23:07:48 2019
Total elapsed time: 0.036 seconds.

tnom = 27
temp = 27
method = modified trap
totiter = 2087
traniter = 2084
tranpoints = 1043
accept = 1042
rejected = 1
matrix size = 10
fillins = 1
solver = Normal
Matrix Compiler1: 328 bytes object code size  0.4/0.4/[0.4]
Matrix Compiler2: 680 bytes object code size  0.4/0.4/[0.4]

